656
title
Fe      11.017078     6.919515     1.398830
Fe       1.386687     6.318440     1.977969
S        0.830765     7.692877     0.233232
S        0.099692     7.705459     3.244543
O        9.475874     5.233959     3.201675
O       10.448199     5.127012    17.337289
O        1.004115     4.261572     3.979479
O        1.999473     4.305466    18.154691
N        1.527167     9.766759     1.954137
H        2.027425     9.422184     2.125247
N        9.032840     9.240604     0.873531
N        4.214885     7.301549     2.744111
C        1.124081     9.479518     0.650834
C        0.646617     9.476516     3.040011
C        9.767632     8.371589     1.063531
C       10.069946     5.928970     2.472007
C       10.661378     5.863344     0.043050
C        3.161104     6.938388     2.453479
C        1.166070     5.094271     3.201675
C        1.781495     5.111714     0.783617
N        6.492320    10.372981     4.187644
C        5.707982    10.175673     5.480593
H        6.339003    10.127061     6.215892
H        5.156139    10.959187     5.623729
C        4.817835     8.953220     5.538356
H        4.390756     8.908897     6.395720
H        5.349284     8.163987     5.403939
H        4.150824     9.008981     4.849922
C        7.367112    11.584425     4.425235
H        6.800873    12.318898     4.708238
H        7.971741    11.385259     5.156902
C        8.186480    12.044382     3.247994
H        8.758718    12.766416     3.518464
H        7.601046    12.344634     2.548479
H        8.721528    11.316630     2.926301
C        7.305929     9.151529     3.852690
H        6.700101     8.407048     3.716457
H        7.766599     9.310662     3.013491
C        8.316043     8.755911     4.878985
H        8.758718     7.950951     4.597435
H        7.876968     8.602926     5.718185
H        8.962660     9.457929     4.978889
C        5.583218    10.571719     3.005861
H        6.131462    10.626051     2.206987
H        5.022976     9.783916     2.919035
C        4.688271    11.785594     3.047821
H        4.197610    11.849934     2.225151
H        5.224519    12.574827     3.164256
H        4.074045    11.705527     3.781849
N        5.974067     6.918943    17.211590
C        6.386990     7.257513    15.799664
H        6.576536     6.431105    15.329022
H        5.637202     7.682154    15.354452
C        7.589049     8.162700    15.681413
H        7.795391     8.301245    14.755023
H        8.341236     7.755072    16.119177
H        7.395904     9.006121    16.095563
C        7.110385     6.172603    17.881315
H        7.403102     5.461721    17.288971
H        7.855374     6.782829    17.993754
C        6.774480     5.568954    19.228576
H        7.537464     5.094271    19.564983
H        6.036689     4.962732    19.132668
H        6.536947     6.269541    19.841083
C        5.707262     8.168562    18.031354
H        5.488445     7.900909    18.938308
H        6.522551     8.691572    18.070045
C        4.606694     9.040436    17.514029
H        4.557508     9.839677    18.042798
H        3.772931     8.568612    17.568704
H        4.784244     9.272058    16.598720
C        4.718503     6.082385    17.151829
H        4.038056     6.584091    16.675011
H        4.397954     5.944984    18.057329
C        4.871819     4.725533    16.485010
H        4.024859     4.273583    16.480651
H        5.512438     4.200664    16.971092
H        5.176533     4.845491    15.583325
H       11.876154    10.032267     2.883796
H        1.095290     9.767045     3.837432
H        0.349101     9.994664     0.415059
H        1.883946     9.802074     0.160756
Fe       6.977822     7.378185    10.481080
Fe       4.611613     7.979260    11.060219
S        5.167535     6.604823     9.315482
S        5.898608     6.592241    12.326793
O        8.519026     9.063741    12.283925
O        7.546701     9.170688     8.255039
O        4.994185    10.036128    13.061729
O        3.998827     9.992234     9.072441
N        4.471133     4.530941    11.036387
H        3.970875     4.875516    11.207496
N        8.962060     5.057096     9.955781
N        1.783415     6.996151    11.826361
C        4.874219     4.818182     9.733084
C        5.351683     4.821184    12.122261
C        8.227268     5.926111    10.145781
C        7.924954     8.368730    11.554257
C        7.333522     8.434356     9.125300
C        2.837196     7.359312    11.535729
C        4.832230     9.203429    12.283925
C        4.216805     9.185986     9.865867
N       11.502580     3.924719    13.269894
C        0.290318     4.122027    14.562843
H       11.655897     4.170639    15.298142
H        0.842161     3.338513    14.705979
C        1.180465     5.344480    14.620606
H        1.607544     5.388803    15.477970
H        0.649016     6.133713    14.486189
H        1.847476     5.288719    13.932172
C       10.627788     2.713275    13.507485
H       11.194027     1.978802    13.790488
H       10.023159     2.912441    14.239152
C        9.808420     2.253318    12.330244
H        9.236182     1.531284    12.600714
H       10.393854     1.953066    11.630729
H        9.273372     2.981070    12.008551
C       10.688971     5.146171    12.934940
H       11.294799     5.890652    12.798707
H       10.228301     4.987038    12.095741
C        9.678857     5.541789    13.961235
H        9.236182     6.346749    13.679685
H       10.117932     5.694774    14.800435
H        9.032240     4.839771    14.061139
C        0.415082     3.725981    12.088111
H       11.863438     3.671649    11.289237
H        0.975324     4.513784    12.001285
C        1.310029     2.512106    12.130071
H        1.800690     2.447766    11.307401
H        0.773781     1.722873    12.246506
H        1.924255     2.592173    12.864099
N        0.024233     7.378757    26.293840
C       11.607910     7.040187    24.881914
H       11.418364     7.866595    24.411272
H        0.361098     6.615546    24.436702
C       10.405851     6.135000    24.763663
H       10.199509     5.996455    23.837273
H        9.653664     6.542628    25.201427
H       10.598996     5.291579    25.177813
C       10.884515     8.125097    26.963565
H       10.591798     8.835979    26.371221
H       10.139526     7.514871    27.076004
C       11.220420     8.728746    28.310826
H       10.457436     9.203429    28.647233
H       11.958211     9.334968    28.214918
H       11.457953     8.028159    28.923333
C        0.291038     6.129138    27.113604
H        0.509855     6.396791    28.020558
H       11.472349     5.606128    27.152295
C        1.391606     5.257264    26.596279
H        1.440792     4.458023    27.125048
H        2.225369     5.729088    26.650954
H        1.214056     5.025642    25.680970
C        1.279797     8.215315    26.234079
H        1.960244     7.713609    25.757261
H        1.600346     8.352716    27.139579
C        1.126481     9.572167    25.567260
H        1.973441    10.024117    25.562901
H        0.485862    10.097036    26.053342
H        0.821767     9.452209    24.665575
H        6.118746     4.265433    11.966046
H        4.903010     4.530655    12.919682
H        5.649199     4.303036     9.497309
H        4.114354     4.495626     9.243006
Fe       0.979522    14.068365     7.683420
Fe      10.609913    13.467290     7.104281
S       11.165835    14.841727     8.849018
S       11.896908    14.854309     5.837707
O        2.520726    12.382809     5.880575
O        1.548401    12.275862     9.909461
O       10.992485    11.410422     5.102771
O        9.997127    11.454316     9.092059
N       10.469433    16.915609     7.128113
H        9.969175    16.571034     6.957003
N        2.963760    16.389454     8.208719
N        7.781715    14.450399     6.338139
C       10.872519    16.628368     8.431416
C       11.349983    16.625366     6.042239
C        2.228968    15.520439     8.018719
C        1.926654    13.077820     6.610243
C        1.335222    13.012194     9.039200
C        8.835496    14.087238     6.628771
C       10.830530    12.243121     5.880575
C       10.215105    12.260564     8.298633
N        5.504280    17.521831     4.894606
C        6.288618    17.324523     3.601657
H        5.657597    17.275911     2.866358
H        6.840461    18.108037     3.458521
C        7.178765    16.102070     3.543894
H        7.605844    16.057747     2.686530
H        6.647316    15.312837     3.678311
H        7.845776    16.157831     4.232328
C        4.629488    18.733275     4.657015
H        5.195727    19.467748     4.374012
H        4.024859    18.534109     3.925348
C        3.810120    19.193232     5.834256
H        3.237882    19.915266     5.563786
H        4.395554    19.493484     6.533771
H        3.275072    18.465480     6.155949
C        4.690671    16.300379     5.229560
H        5.296499    15.555898     5.365793
H        4.230001    16.459512     6.068759
C        3.680557    15.904761     4.203265
H        3.237882    15.099801     4.484815
H        4.119632    15.751776     3.364065
H        3.033940    16.606779     4.103361
C        6.413382    17.720569     6.076389
H        5.865138    17.774901     6.875263
H        6.973624    16.932766     6.163215
C        7.308329    18.934444     6.034429
H        7.798990    18.998784     6.857099
H        6.772081    19.723677     5.917994
H        7.922555    18.854377     5.300401
N        6.022533    14.067793    10.035160
C        5.609610    14.406363    11.447086
H        5.420064    13.579955    11.917728
H        6.359398    14.831004    11.892298
C        4.407551    15.311550    11.565337
H        4.201209    15.450095    12.491727
H        3.655364    14.903922    11.127573
H        4.600696    16.154971    11.151187
C        4.886215    13.321453     9.365435
H        4.593498    12.610571     9.957779
H        4.141226    13.931679     9.252996
C        5.222120    12.717804     8.018174
H        4.459136    12.243121     7.681767
H        5.959911    12.111582     8.114082
H        5.459653    13.418391     7.405667
C        6.289338    15.317412     9.215396
H        6.508155    15.049759     8.308442
H        5.474049    15.840422     9.176705
C        7.389906    16.189286     9.732721
H        7.439092    16.988527     9.203952
H        8.223669    15.717462     9.678046
H        7.212356    16.420908    10.648030
C        7.278097    13.231235    10.094921
H        7.958544    13.732941    10.571739
H        7.598646    13.093834     9.189421
C        7.124781    11.874383    10.761740
H        7.971741    11.422433    10.766099
H        6.484162    11.349514    10.275658
H        6.820067    11.994341    11.663425
H        0.120446    17.181117     6.198454
H       10.901310    16.915895     5.244818
H       11.647499    17.143514     8.667191
H       10.112654    16.950924     8.921494
Fe       5.018778     0.229335    16.765670
Fe       7.384987     0.830410    16.186531
S        6.829065    13.753673    17.931268
S        6.097992    13.741091    14.919957
O        3.477574     1.914891    14.962825
O        4.449899     2.021838     0.827211
O        7.002415     2.887278    14.185021
O        7.997773     2.843384     0.009809
N        7.525467    11.679791    16.210363
H        8.025725    12.024366    16.039254
N        3.034540    12.205946    17.290969
N       10.213185    14.145001    15.420389
C        7.122381    11.967032    17.513666
C        6.644917    11.970034    15.124489
C        3.769332    13.074961    17.100969
C        4.071646     1.219880    15.692493
C        4.663078     1.285506    18.121450
C        9.159404     0.210462    15.711021
C        7.164370     2.054579    14.962825
C        7.779795     2.037136    17.380883
N       12.490620    11.073569    13.976856
C       11.706282    11.270877    12.683907
H       12.337303    11.319489    11.948608
H       11.154439    10.487363    12.540771
C       10.816135    12.493330    12.626144
H       10.389056    12.537653    11.768780
H       11.347584    13.282563    12.760561
H       10.149124    12.437569    13.314578
C       13.365412     9.862125    13.739265
H       12.799173     9.127652    13.456262
H       13.970041    10.061291    13.007598
C       14.184780     9.402168    14.916506
H       14.757018     8.680134    14.646036
H       13.599346     9.101916    15.616021
H       14.719828    10.129920    15.238199
C       13.304229    12.295021    14.311810
H       12.698401    13.039502    14.448043
H       13.764899    12.135888    15.151009
C       14.314343    12.690639    13.285515
H       14.757018    13.495599    13.567065
H       13.875268    12.843624    12.446315
H       14.960960    11.988621    13.185611
C       11.581518    10.874831    15.158639
H       12.129762    10.820499    15.957513
H       11.021276    11.662634    15.245465
C       10.686571     9.660956    15.116679
H       10.195910     9.596616    15.939349
H       11.222819     8.871723    15.000244
H       10.072345     9.741023    14.382651
N       11.972367     0.229907     0.952910
C       12.385290    14.189037     2.364836
H       12.574836     0.717745     2.835478
H       11.635502    13.764396     2.810048
C       13.587349    13.283850     2.483087
H       13.793691    13.145305     3.409477
H       14.339536    13.691478     2.045323
H       13.394204    12.440429     2.068937
C       13.108685     0.976247     0.283185
H       13.401402     1.687129     0.875529
H       13.853674     0.366021     0.170746
C       12.772780     1.579896    -1.064076
H       13.535764     2.054579    -1.400483
H       12.034989     2.186118    -0.968168
H       12.535247     0.879309    -1.676583
C       11.705562    13.277988     0.133146
H       11.486745    13.545641    -0.773808
H       12.520851    12.754978     0.094455
C       10.604994    12.406114     0.650471
H       10.555808    11.606873     0.121702
H        9.771231    12.877938     0.595796
H       10.782544    12.174492     1.565780
C       10.716803     1.066465     1.012671
H       10.036356     0.564759     1.489489
H       10.396254     1.203866     0.107171
C       10.870119     2.423317     1.679490
H       10.023159     2.875267     1.683849
H       11.510738     2.948186     1.193408
H       11.174833     2.303359     2.581175
H        5.877854    11.414283    15.280704
H        7.093590    11.679505    14.327068
H        6.347401    11.451886    17.749441
H        7.882246    11.644476    18.003744
Fe      22.034155    13.839030     2.797660
Fe       2.773374    12.636879     3.955937
S        1.661529    15.385755     0.466464
S        0.199383    15.410919     6.489086
O       18.951749    10.467918     6.403350
O       20.896398    10.254024    34.674577
O        2.008231     8.523145     7.958957
O        3.998947     8.610933    36.309382
N        3.054334    19.533518     3.908274
H        4.054851    18.844369     4.250493
N       18.065680    18.481207     1.747062
N        8.429771    14.603099     5.488222
C        2.248163    18.959036     1.301668
C        1.293233    18.953031     6.080021
C       19.535263    16.743179     2.127063
C       20.139892    11.857940     4.944014
C       21.322757    11.726688     0.086100
C        6.322208    13.876776     4.906958
C        2.332139    10.188541     6.403350
C        3.562990    10.223427     1.567233
N       12.984640    20.745963     8.375288
C       11.415965    20.351346    10.961186
H       12.678007    20.254122    12.431784
H       10.312277    21.918374    11.247458
C        9.635669    17.906439    11.076712
H        8.781511    17.817794    12.791441
H       10.698568    16.327973    10.807878
H        8.301647    18.017962     9.699843
C       14.734224    23.168851     8.850471
H       13.601745    24.637797     9.416477
H       15.943481    22.770517    10.313803
C       16.372960    24.088765     6.495988
H       17.517435    25.532833     7.036927
H       15.202092    24.689268     5.096959
H       17.443056    22.633259     5.852602
C       14.611859    18.303058     7.705381
H       13.400202    16.814095     7.432913
H       15.533198    18.621324     6.026981
C       16.632086    17.511823     9.757969
H       17.517435    15.901902     9.194870
H       15.753935    17.205852    11.436369
H       17.925320    18.915857     9.957779
C       11.166435    21.143439     6.011723
H       12.262925    21.252101     4.413973
H       10.045953    19.567832     5.838070
C        9.376543    23.571188     6.095643
H        8.395221    23.699868     4.450303
H       10.449039    25.149654     6.328512
H        8.148091    23.411054     7.563698
N       11.948134    13.837886    34.423181
C       12.773980    14.515025    31.599327
H       13.153072    12.862211    30.658043
H       11.274405    15.364308    30.708904
C       15.178098    16.325400    31.362826
H       15.590781    16.602489    29.510047
H       16.682472    15.510145    32.238355
H       14.791808    18.012242    32.191127
C       14.220770    12.345206    35.762631
H       14.806204    10.923443    34.577942
H       15.710747    13.565658    35.987507
C       13.548960    11.137908    38.457153
H       15.074928    10.188541    39.129966
H       12.073378     9.925463    38.265336
H       13.073895    12.539083    39.682167
C       11.414525    16.337124    36.062708
H       10.976889    15.801818    37.876615
H       13.045103    17.383144    36.140089
C        9.213389    18.080871    35.028059
H        9.115017    19.679354    36.085596
H        7.545861    17.137223    35.137409
H        9.568488    18.544117    33.197440
C        9.437005    12.164769    34.303658
H        8.076111    13.168182    33.350022
H        8.795907    11.889967    36.114659
C        9.743639     9.451066    32.970021
H        8.049719     8.547165    32.961302
H       11.024875     8.401329    33.942185
H       10.353066     9.690981    31.166649
H       23.752308    20.064534     5.767592
H        2.190579    19.534090     7.674865
H        0.698202    19.989328     0.830118
H        3.767892    19.604148     0.321512
Fe      13.955645    14.756370    20.962160
Fe       9.223226    15.958521    22.120437
S       10.335071    13.209645    18.630964
S       11.797217    13.184481    24.653586
O       17.038051    18.127482    24.567850
O       15.093402    18.341376    16.510077
O        9.988369    20.072255    26.123457
O        7.997653    19.984467    18.144882
N        8.942266     9.061882    22.072774
H        7.941749     9.751031    22.414993
N       17.924120    10.114193    19.911562
N        3.566829    13.992301    23.652722
C        9.748437     9.636364    19.466168
C       10.703367     9.642369    24.244521
C       16.454537    11.852221    20.291563
C       15.849908    16.737460    23.108514
C       14.667043    16.868712    18.250600
C        5.674392    14.718624    23.071458
C        9.664461    18.406859    24.567850
C        8.433610    18.371973    19.731733
N       23.005160     7.849437    26.539788
C        0.580635     8.244054    29.125686
H       23.311793     8.341278    30.596284
H        1.684323     6.677026    29.411958
C        2.360931    10.688961    29.241212
H        3.215089    10.777606    30.955941
H        1.298032    12.267427    28.972378
H        3.694953    10.577438    27.864343
C       21.255576     5.426549    27.014971
H       22.388055     3.957603    27.580977
H       20.046319     5.824883    28.478303
C       19.616840     4.506635    24.660488
H       18.472365     3.062567    25.201427
H       20.787708     3.906132    23.261459
H       18.546744     5.962141    24.017102
C       21.377941    10.292342    25.869881
H       22.589598    11.781305    25.597413
H       20.456602     9.974076    24.191481
C       19.357714    11.083577    27.922469
H       18.472365    12.693498    27.359370
H       20.235865    11.389548    29.600869
H       18.064480     9.679543    28.122279
C        0.830165     7.451961    24.176223
H       23.726875     7.343299    22.578473
H        1.950647     9.027568    24.002570
C        2.620057     5.024212    24.260143
H        3.601379     4.895532    22.614803
H        1.547561     3.445746    24.493012
H        3.848509     5.184346    25.728198
N        0.048466    14.757514    52.587681
C       23.215820    14.080375    49.763827
H       22.836728    15.733189    48.822543
H        0.722195    13.231092    48.873404
C       20.811702    12.270000    49.527326
H       20.399019    11.992911    47.674547
H       19.307328    13.085255    50.402855
H       21.197992    10.583158    50.355627
C       21.769030    16.250194    53.927131
H       21.183596    17.671957    52.742442
H       20.279053    15.029742    54.152007
C       22.440840    17.457492    56.621653
H       20.914872    18.406859    57.294466
H       23.916422    18.669937    56.429836
H       22.915905    16.056317    57.846667
C        0.582075    12.258276    54.227208
H        1.019711    12.793582    56.041115
H       22.944697    11.212256    54.304589
C        2.783211    10.514529    53.192559
H        2.881583     8.916046    54.250096
H        4.450739    11.458177    53.301909
H        2.428112    10.051283    51.361940
C        2.559595    16.430631    52.468158
H        3.920489    15.427218    51.514522
H        3.200693    16.705433    54.279159
C        2.252961    19.144334    51.134521
H        3.946881    20.048235    51.125802
H        0.971725    20.194071    52.106685
H        1.643534    18.904419    49.331149
H       12.237492     8.530866    23.932092
H        9.806021     9.061310    25.839365
H       11.298398     8.606072    18.994618
H        8.228708     8.991252    18.486012
Fe       1.959045    28.136730    15.366840
Fe      21.219826    26.934579    14.208563
S       22.331671    29.683455    17.698036
S       23.793817    29.708619    11.675414
O        5.041451    24.765618    11.761150
O        3.096802    24.551724    19.818923
O       21.984969    22.820845    10.205543
O       19.994253    22.908633    18.184118
N       20.938866    33.831218    14.256226
H       19.938349    33.142069    13.914007
N        5.927520    32.778907    16.417438
N       15.563429    28.900799    12.676278
C       21.745037    33.256736    16.862832
C       22.699967    33.250731    12.084479
C        4.457937    31.040879    16.037437
C        3.853308    26.155640    13.220486
C        2.670443    26.024388    18.078400
C       17.670992    28.174476    13.257542
C       21.661061    24.486241    11.761150
C       20.430210    24.521127    16.597267
N       11.008560    35.043663     9.789212
C       12.577235    34.649046     7.203314
H       11.315193    34.551822     5.732716
H       13.680923    36.216074     6.917042
C       14.357531    32.204139     7.087788
H       15.211689    32.115494     5.373059
H       13.294632    30.625673     7.356623
H       15.691553    32.315662     8.464657
C        9.258976    37.466551     9.314029
H       10.391455    38.935497     8.748023
H        8.049719    37.068217     7.850697
C        7.620240    38.386465    11.668512
H        6.475765    39.830533    11.127573
H        8.791108    38.986968    13.067541
H        6.550144    36.930959    12.311898
C        9.381341    32.600758    10.459119
H       10.592998    31.111795    10.731587
H        8.460002    32.919024    12.137519
C        7.361114    31.809523     8.406531
H        6.475765    30.199602     8.969630
H        8.239265    31.503552     6.728131
H        6.067880    33.213557     8.206721
C       12.826765    35.441139    12.152777
H       11.730275    35.549801    13.750527
H       13.947247    33.865532    12.326430
C       14.616657    37.868888    12.068857
H       15.597979    37.997568    13.714198
H       13.544161    39.447354    11.835988
H       15.845109    37.708754    10.600802
N       12.045066    28.135586    20.070319
C       11.219220    28.812725    22.894173
H       10.840128    27.159911    23.835457
H       12.718795    29.662008    23.784596
C        8.815102    30.623100    23.130674
H        8.402419    30.900189    24.983453
H        7.310728    29.807845    22.255145
H        9.201392    32.309942    22.302373
C        9.772430    26.642906    18.730869
H        9.186996    25.221143    19.915558
H        8.282453    27.863358    18.505993
C       10.444240    25.435608    16.036347
H        8.918272    24.486241    15.363534
H       11.919822    24.223163    16.228164
H       10.919305    26.836783    14.811333
C       12.578675    30.634824    18.430792
H       13.016311    30.099518    16.616885
H       10.948097    31.680844    18.353411
C       14.779811    32.378571    19.465441
H       14.878183    33.977054    18.407904
H       16.447339    31.434923    19.356091
H       14.424712    32.841817    21.296060
C       14.556195    26.462469    20.189842
H       15.917089    27.465882    21.143478
H       15.197293    26.187667    18.378841
C       14.249561    23.748766    21.523479
H       15.943481    22.844865    21.532198
H       12.968325    22.699029    20.551315
H       13.640134    23.988681    23.326851
H        0.240892    34.362234    12.396908
H       21.802621    33.831790    10.489635
H       23.294998    34.287028    17.334382
H       20.225308    33.901848    17.842988
Fe      10.037555     0.458670    33.531340
Fe      14.769974     1.660821    32.373063
S       13.658129    27.507345    35.862536
S       12.195983    27.482181    29.839914
O        6.955149     3.829782    29.925650
O        8.899798     4.043676     1.654423
O       14.004831     5.774555    28.370043
O       15.995547     5.686767     0.019618
N       15.050934    23.359582    32.420726
H       16.051451    24.048731    32.078507
N        6.069080    24.411893    34.581938
N       20.426371    28.290001    30.840778
C       14.244763    23.934064    35.027332
C       13.289833    23.940069    30.248979
C        7.538663    26.149921    34.201937
C        8.143292     2.439760    31.384986
C        9.326157     2.571012    36.242900
C       18.318808     0.420924    31.422042
C       14.328739     4.109159    29.925650
C       15.559590     4.074273    34.761767
N       24.981240    22.147137    27.953712
C       23.412565    22.541754    25.367814
H       24.674607    22.638978    23.897216
H       22.308877    20.974726    25.081542
C       21.632269    24.986661    25.252288
H       20.778111    25.075306    23.537559
H       22.695168    26.565127    25.521123
H       20.298247    24.875138    26.629157
C       26.730824    19.724249    27.478529
H       25.598345    18.255303    26.912523
H       27.940081    20.122583    26.015197
C       28.369560    18.804335    29.833012
H       29.514035    17.360267    29.292073
H       27.198692    18.203832    31.232041
H       29.439656    20.259841    30.476398
C       26.608459    24.590042    28.623619
H       25.396802    26.079005    28.896087
H       27.529798    24.271776    30.302019
C       28.628686    25.381277    26.571031
H       29.514035    26.991198    27.134130
H       27.750535    25.687248    24.892631
H       29.921920    23.977243    26.371221
C       23.163035    21.749661    30.317277
H       24.259525    21.640999    31.915027
H       22.042553    23.325268    30.490930
C       21.373143    19.321912    30.233357
H       20.391821    19.193232    31.878697
H       22.445639    17.743446    30.000488
H       20.144691    19.482046    28.765302
N       23.944734     0.459814     1.905819
C       24.770580    28.378075     4.729673
H       25.149672     1.435489     5.670957
H       23.271005    27.528792     5.620096
C       27.174698    26.567700     4.966174
H       27.587381    26.290611     6.818953
H       28.679072    27.382955     4.090645
H       26.788408    24.880858     4.137873
C       26.217370     1.952494     0.566369
H       26.802804     3.374257     1.751058
H       27.707347     0.732042     0.341493
C       25.545560     3.159792    -2.128153
H       27.071528     4.109159    -2.800966
H       24.069978     4.372237    -1.936336
H       25.070495     1.758617    -3.353167
C       23.411125    26.555976     0.266292
H       22.973489    27.091282    -1.547615
H       25.041703    25.509956     0.188911
C       21.209989    24.812229     1.300941
H       21.111617    23.213746     0.243404
H       19.542461    25.755877     1.191591
H       21.565088    24.348983     3.131560
C       21.433605     2.132931     2.025342
H       20.072711     1.129518     2.978978
H       20.792507     2.407733     0.214341
C       21.740239     4.846634     3.358979
H       20.046319     5.750535     3.367698
H       23.021475     5.896371     2.386815
H       22.349666     4.606719     5.162351
H       11.755708    22.828566    30.561408
H       14.187179    23.359010    28.654135
H       12.694802    22.903772    35.498882
H       15.764492    23.288952    36.007488
