647
 Fractional coordinates for whole cell
Fe   11.017077    6.919515    1.398830
Fe    1.386687    6.318440    1.977969
 S    0.830765    7.692877    0.233232
 S    0.099692    7.705460    3.244543
 O    9.475874    5.233959    3.201674
 O   10.448199    5.127012   17.337288
 O    1.004115    4.261572    3.979479
 O    1.999473    4.305466   18.154690
 N    1.527167    9.766759    1.954137
 H    2.027426    9.422184    2.125246
 N    9.032840    9.240603    0.873531
 N    4.214885    7.301550    2.744111
 C    1.124081    9.479518    0.650834
 C    0.646617    9.476516    3.040010
 C    9.767632    8.371590    1.063531
 C   10.069946    5.928970    2.472007
 C   10.661379    5.863344    0.043050
 C    3.161104    6.938388    2.453479
 C    1.166070    5.094270    3.201674
 C    1.781495    5.111714    0.783617
 N    6.492320   10.372981    4.187644
 C    5.707983   10.175673    5.480593
 H    6.339004   10.127061    6.215892
 H    5.156139   10.959187    5.623729
 C    4.817835    8.953220    5.538356
 H    4.390756    8.908896    6.395720
 H    5.349284    8.163986    5.403939
 H    4.150824    9.008981    4.849921
 C    7.367112   11.584426    4.425235
 H    6.800873   12.318898    4.708238
 H    7.971741   11.385259    5.156901
 C    8.186480   12.044383    3.247994
 H    8.758718   12.766417    3.518464
 H    7.601046   12.344634    2.548479
 H    8.721528   11.316629    2.926301
 C    7.305930    9.151529    3.852690
 H    6.700101    8.407047    3.716457
 H    7.766599    9.310662    3.013490
 C    8.316043    8.755912    4.878984
 H    8.758718    7.950951    4.597435
 H    7.876967    8.602926    5.718184
 H    8.962660    9.457928    4.978889
 C    5.583218   10.571720    3.005861
 H    6.131462   10.626051    2.206987
 H    5.022976    9.783916    2.919035
 C    4.688272   11.785594    3.047821
 H    4.197610   11.849934    2.225151
 H    5.224519   12.574826    3.164256
 H    4.074045   11.705527    3.781849
 N    5.974067    6.918943   17.211590
 C    6.386990    7.257513   15.799663
 H    6.576536    6.431106   15.329021
 H    5.637203    7.682154   15.354451
 C    7.589049    8.162700   15.681413
 H    7.795391    8.301245   14.755023
 H    8.341236    7.755073   16.119177
 H    7.395904    9.006121   16.095562
 C    7.110385    6.172603   17.881315
 H    7.403102    5.461721   17.288971
 H    7.855374    6.782829   17.993753
 C    6.774480    5.568954    1.064077
 H    7.537464    5.094270    1.400484
 H    6.036689    4.962731    0.968168
 H    6.536947    6.269541    1.676584
 C    5.707263    8.168562   18.031353
 H    5.488445    7.900909    0.773808
 H    6.522551    8.691572   18.070044
 C    4.606695    9.040436   17.514029
 H    4.557508    9.839677   18.042797
 H    3.772931    8.568612   17.568703
 H    4.784244    9.272058   16.598719
 C    4.718503    6.082385   17.151829
 H    4.038056    6.584091   16.675011
 H    4.397954    5.944983   18.057329
 C    4.871819    4.725533   16.485010
 H    4.024859    4.273582   16.480650
 H    5.512438    4.200664   16.971092
 H    5.176533    4.845490   15.583324
 H   11.876155   10.032267    2.883796
 H    1.095290    9.767045    3.837432
 H    0.349101    9.994664    0.415059
 H    1.883946    9.802074    0.160756
Fe    6.977823    7.378185   10.481080
Fe    4.611613    7.979260   11.060219
 S    5.167536    6.604823    9.315481
 S    5.898609    6.592240   12.326792
 O    8.519026    9.063742   12.283924
 O    7.546701    9.170688    8.255038
 O    4.994184   10.036127   13.061728
 O    3.998827    9.992233    9.072441
 N    4.471133    4.530941   11.036386
 H    3.970875    4.875515   11.207496
 N    8.962060    5.057096    9.955780
 N    1.783415    6.996150   11.826361
 C    4.874219    4.818182    9.733084
 C    5.351683    4.821184   12.122260
 C    8.227268    5.926111   10.145782
 C    7.924954    8.368730   11.554256
 C    7.333521    8.434356    9.125299
 C    2.837196    7.359313   11.535729
 C    4.832231    9.203429   12.283924
 C    4.216805    9.185987    9.865866
 N   11.502580    3.924719   13.269893
 C    0.290318    4.122027   14.562842
 H   11.655896    4.170639   15.298141
 H    0.842161    3.338513   14.705978
 C    1.180465    5.344481   14.620605
 H    1.607544    5.388803   15.477970
 H    0.649016    6.133713   14.486189
 H    1.847476    5.288719   13.932171
 C   10.627789    2.713274   13.507484
 H   11.194027    1.978802   13.790487
 H   10.023159    2.912441   14.239151
 C    9.808420    2.253318   12.330244
 H    9.236183    1.531284   12.600714
 H   10.393854    1.953066   11.630729
 H    9.273372    2.981071   12.008550
 C   10.688971    5.146171   12.934940
 H   11.294799    5.890652   12.798706
 H   10.228301    4.987038   12.095740
 C    9.678857    5.541789   13.961234
 H    9.236183    6.346749   13.679684
 H   10.117932    5.694774   14.800434
 H    9.032240    4.839771   14.061139
 C    0.415082    3.725981   12.088111
 H   11.863438    3.671649   11.289237
 H    0.975324    4.513784   12.001286
 C    1.310029    2.512106   12.130071
 H    1.800690    2.447766   11.307401
 H    0.773781    1.722873   12.246506
 H    1.924255    2.592173   12.864098
 N    0.024233    7.378757    8.129341
 C   11.607910    7.040187    6.717413
 H   11.418364    7.866594    6.246771
 H    0.361098    6.615546    6.272201
 C   10.405850    6.135000    6.599162
 H   10.199510    5.996456    5.672772
 H    9.653665    6.542627    7.036928
 H   10.598996    5.291579    7.013314
 C   10.884515    8.125096    8.799066
 H   10.591798    8.835979    8.206720
 H   10.139526    7.514871    8.911503
 C   11.220420    8.728745   10.146327
 H   10.457437    9.203429   10.482733
 H   11.958211    9.334968   10.050418
 H   11.457952    8.028159   10.758834
 C    0.291037    6.129138    8.949105
 H    0.509856    6.396791    9.856058
 H   11.472349    5.606128    8.987794
 C    1.391606    5.257265    8.431779
 H    1.440792    4.458023    8.960546
 H    2.225369    5.729088    8.486455
 H    1.214056    5.025641    7.516470
 C    1.279797    8.215316    8.069578
 H    1.960244    7.713609    7.592761
 H    1.600346    8.352716    8.975079
 C    1.126481    9.572166    7.402760
 H    1.973441   10.024117    7.398400
 H    0.485862   10.097035    7.888841
 H    0.821767    9.452209    6.501075
 H    6.118746    4.265433   11.966045
 H    4.903010    4.530655   12.919683
 H    5.649199    4.303036    9.497308
 H    4.114354    4.495626    9.243005
Fe    0.979522   14.068364    7.683420
Fe   10.609914   13.467289    7.104281
 S   11.165835    0.544028    8.849017
 S   11.896908    0.556610    5.837707
 O    2.520726   12.382809    5.880575
 O    1.548401   12.275863    9.909460
 O   10.992485   11.410422    5.102771
 O    9.997127   11.454316    9.092059
 N   10.469433    2.617909    7.128113
 H    9.969174    2.273335    6.957003
 N    2.963760    2.091753    8.208718
 N    7.781715    0.152699    6.338139
 C   10.872519    2.330668    8.431416
 C   11.349983    2.327665    6.042239
 C    2.228968    1.222740    8.018718
 C    1.926654   13.077820    6.610243
 C    1.335222   13.012194    9.039200
 C    8.835496   14.087237    6.628771
 C   10.830531   12.243120    5.880575
 C   10.215105   12.260564    8.298634
 N    5.504280    3.224131    4.894606
 C    6.288618    3.026823    3.601657
 H    5.657597    2.978211    2.866358
 H    6.840462    3.810337    3.458521
 C    7.178765    1.804369    3.543894
 H    7.605844    1.760047    2.686529
 H    6.647316    1.015136    3.678311
 H    7.845776    1.860131    4.232328
 C    4.629488    4.435575    4.657014
 H    5.195727    5.170049    4.374012
 H    4.024859    4.236409    3.925349
 C    3.810120    4.895532    5.834256
 H    3.237882    5.617566    5.563787
 H    4.395555    5.195784    6.533770
 H    3.275072    4.167779    6.155949
 C    4.690670    2.002678    5.229559
 H    5.296499    1.258198    5.365793
 H    4.230001    2.161813    6.068759
 C    3.680557    1.607062    4.203265
 H    3.237882    0.802101    4.484815
 H    4.119633    1.454075    3.364065
 H    3.033940    2.309078    4.103360
 C    6.413383    3.422870    6.076388
 H    5.865138    3.477200    6.875263
 H    6.973624    2.635065    6.163215
 C    7.308329    4.636745    6.034429
 H    7.798990    4.701083    6.857099
 H    6.772080    5.425978    5.917994
 H    7.922554    4.556676    5.300401
 N    6.022533   14.067793   10.035159
 C    5.609610    0.108662   11.447086
 H    5.420064   13.579956   11.917727
 H    6.359397    0.533304   11.892298
 C    4.407551    1.013850   11.565336
 H    4.201210    1.152395   12.491726
 H    3.655364    0.606223   11.127573
 H    4.600696    1.857271   11.151186
 C    4.886215   13.321453    9.365435
 H    4.593498   12.610572    9.957779
 H    4.141226   13.931679    9.252996
 C    5.222120   12.717804    8.018173
 H    4.459136   12.243120    7.681767
 H    5.959911   12.111582    8.114082
 H    5.459653   13.418391    7.405666
 C    6.289338    1.019713    9.215395
 H    6.508156    0.752059    8.308442
 H    5.474049    1.542722    9.176705
 C    7.389905    1.891586    9.732720
 H    7.439092    2.690827    9.203952
 H    8.223670    1.419762    9.678045
 H    7.212356    2.123208   10.648029
 C    7.278097   13.231235   10.094921
 H    7.958544   13.732941   10.571739
 H    7.598647   13.093833    9.189421
 C    7.124781   11.874383   10.761739
 H    7.971741   11.422433   10.766099
 H    6.484162   11.349514   10.275657
 H    6.820067   11.994341   11.663424
 H    0.120446    2.883418    6.198453
 H   10.901310    2.618195    5.244818
 H   11.647499    2.845815    8.667191
 H   10.112654    2.653224    8.921494
Fe    5.018778    0.229335   16.765669
Fe    7.384987    0.830410   16.186531
 S    6.829064   13.753673   17.931267
 S    6.097992   13.741091   14.919957
 O    3.477575    1.914891   14.962825
 O    4.449899    2.021838    0.827211
 O    7.002416    2.887278   14.185021
 O    7.997774    2.843384    0.009809
 N    7.525467   11.679791   16.210361
 H    8.025726   12.024366   16.039253
 N    3.034540   12.205946   17.290968
 N   10.213185   14.145000   15.420388
 C    7.122381   11.967031   17.513664
 C    6.644917   11.970035   15.124489
 C    3.769332   13.074960   17.100967
 C    4.071646    1.219880   15.692492
 C    4.663079    1.285506   18.121449
 C    9.159404    0.210462   15.711020
 C    7.164369    2.054579   14.962825
 C    7.779796    2.037136   17.380882
 N    0.494020   11.073568   13.976856
 C   11.706283   11.270877   12.683907
 H    0.340703   11.319489   11.948608
 H   11.154439   10.487363   12.540771
 C   10.816134   12.493330   12.626143
 H   10.389055   12.537653   11.768779
 H   11.347585   13.282563   12.760560
 H   10.149124   12.437569   13.314578
 C    1.368812    9.862124   13.739264
 H    0.802573    9.127652   13.456262
 H    1.973441   10.061292   13.007598
 C    2.188180    9.402167   14.916505
 H    2.760418    8.680134   14.646035
 H    1.602746    9.101916   15.616020
 H    2.723228   10.129921   15.238199
 C    1.307629   12.295021   14.311809
 H    0.701802   13.039502   14.448043
 H    1.768299   12.135888   15.151009
 C    2.317743   12.690639   13.285515
 H    2.760418   13.495599   13.567065
 H    1.878668   12.843624   12.446315
 H    2.964360   11.988622   13.185610
 C   11.581517   10.874830   15.158638
 H    0.133163   10.820499   15.957512
 H   11.021276   11.662634   15.245463
 C   10.686571    9.660956   15.116678
 H   10.195910    9.596616   15.939348
 H   11.222819    8.871723   15.000243
 H   10.072346    9.741023   14.382651
 N   11.972367    0.229907    0.952910
 C    0.388690   14.189037    2.364836
 H    0.578236    0.717745    2.835479
 H   11.635503   13.764396    2.810048
 C    1.590749   13.283851    2.483087
 H    1.797090   13.145305    3.409477
 H    2.342936   13.691478    2.045323
 H    1.397604   12.440429    2.068936
 C    1.112085    0.976247    0.283185
 H    1.404802    1.687129    0.875529
 H    1.857074    0.366021    0.170746
 C    0.776180    1.579896   17.100424
 H    1.539163    2.054579   16.764017
 H    0.038390    2.186118   17.196331
 H    0.538647    0.879309   16.487917
 C   11.705563   13.277988    0.133146
 H   11.486745   13.545641   17.390692
 H    0.524251   12.754978    0.094455
 C   10.604995   12.406114    0.650471
 H   10.555808   11.606873    0.121702
 H    9.771231   12.877938    0.595796
 H   10.782544   12.174491    1.565780
 C   10.716804    1.066465    1.012671
 H   10.036356    0.564759    1.489489
 H   10.396254    1.203866    0.107171
 C   10.870119    2.423317    1.679490
 H   10.023159    2.875268    1.683849
 H   11.510738    2.948186    1.193408
 H   11.174833    2.303360    2.581176
 H    5.877854   11.414283   15.280704
 H    7.093590   11.679505   14.327066
 H    6.347401   11.451886   17.749441
 H    7.882246   11.644476   18.003744
 S   12.827365    7.692877    0.233232
 S   12.096292    7.705460    3.244543
 C   10.661379    5.863344   18.207550
 C    1.781495    5.111714   18.948116
 H   -0.120445   10.032267    2.883796
 O   10.448199    5.127012   -0.827211
 O    1.999473    4.305466   -0.009809
 C    6.774480    5.568954   19.228577
 C    7.110385    6.172603   -0.283184
 H    5.488445    7.900909   18.938307
 C   12.411682    3.725981   12.088111
 C   12.286918    4.122027   14.562842
 N   -0.494020    3.924719   13.269893
 H   -0.340704    4.170639   15.298141
 H   -0.133162    3.671649   11.289237
 C   -0.388690    7.040187    6.717413
 C   -1.112085    8.125096    8.799066
 H   12.357697    6.615546    6.272201
 N   12.020833    7.378757    8.129341
 H   -0.524251    5.606128    8.987794
 S   -0.099692   14.854310    5.837707
 S   -0.830765   14.841728    8.849017
 C    2.228968   15.520439    8.018718
 S   11.896908   14.854310    5.837707
 S   11.165835   14.841728    8.849017
 C    8.835496   -0.210463    6.628771
 H   12.117046    2.883418    6.198453
 N    7.781715   14.450398    6.338139
 C    5.609610   14.406362   11.447086
 C    6.289338   15.317412    9.215395
 H    5.420064   -0.717744   11.917727
 N    6.022533   -0.229907   10.035159
 C    3.769332   -1.222740   17.100967
 S    6.097992   -0.556609   14.919957
 S    6.829064   -0.544027   17.931267
 C    4.663079    1.285506   -0.043051
 C    7.779796    2.037136   -0.783617
 C    9.159404   14.508162   15.711020
 O    4.449899    2.021838   18.991711
 N   10.213185   -0.152699   15.420388
 O    7.997774    2.843384   18.174309
 C   -0.290318   11.270877   12.683907
 C   -0.415083   10.874830   15.158638
 H   12.337303   11.319489   11.948608
 N   12.490621   11.073568   13.976856
 H   12.129763   10.820499   15.957512
 C   11.705563   -1.019711    0.133146
 C   12.385290   -0.108663    2.364836
 C   13.108685    0.976247    0.283185
 H   -0.361097   13.764396    2.810048
 N   -0.024233   14.527607    0.952910
 H    0.578236   15.015445    2.835479
 N   -0.024233    0.229907    0.952910
 C    0.776180    1.579896   -1.064075
 C    1.112085    0.976247   18.447683
 H   11.486745   13.545641   -0.773808
 N   11.972367   14.527607    0.952910
 H   12.520851   12.754978    0.094455
 C   13.120682    9.479518    0.650834
 C   12.643217    9.476516    3.040010
 H    7.537464    5.094270   19.564983
 H    6.036689    4.962731   19.132668
 H    6.536947    6.269541   19.841084
 N    5.974067    6.918943   -0.952909
 H    7.403102    5.461721   -0.875528
 H    7.855374    6.782829   -0.170746
 C   13.306629    2.512106   12.130071
 H   12.971924    4.513784   12.001286
 H   12.838761    3.338513   14.705978
 C   13.177066    5.344481   14.620605
 C   -1.368812    2.713274   13.507484
 C   -1.307630    5.146171   12.934940
 H   -0.578237    7.866594    6.246771
 C   -1.590750    6.135000    6.599162
 H   -1.857074    7.514871    8.911503
 H   -1.404802    8.835979    8.206720
 C   -0.776180    8.728745   10.146327
 C   12.287638    6.129138    8.949105
 C   13.276398    8.215316    8.069578
 C   -0.646617   16.625364    6.042239
 C   -1.124082   16.628368    8.431416
 N    2.963760   16.389454    8.208718
 C   11.349983   16.625364    6.042239
 C   10.872519   16.628368    8.431416
 C    4.407551   15.311549   11.565336
 H    6.359397   14.831004   11.892298
 H    5.474049   15.840422    9.176705
 H    6.508156   15.049759    8.308442
 C    7.389905   16.189285    9.732720
 C    4.886215   -0.976247    9.365435
 C    7.278097   -1.066465   10.094921
 N    3.034540   -2.091754   17.290968
 C    6.644917   -2.327665   15.124489
 C    7.122381   -2.330668   17.513664
 H   -0.842161   10.487363   12.540771
 C   -1.180466   12.493330   12.626143
 C   -1.310029    9.660956   15.116678
 H   -0.975324   11.662634   15.245463
 C   13.365412    9.862124   13.739264
 C   13.304229   12.295021   14.311809
 H   11.486745   -0.752059   -0.773808
 C   10.604995   -1.891586    0.650471
 H   12.520851   -1.542722    0.094455
 H   11.635503   -0.533304    2.810048
 C   13.587349   -1.013849    2.483087
 H   12.574837    0.717745    2.835479
 C   12.772780    1.579896   -1.064075
 H   13.401402    1.687129    0.875529
 H   13.853675    0.366021    0.170746
 C   -0.291038   13.277988    0.133146
 C   -1.279797   15.364165    1.012671
 C    1.112085   15.273947    0.283185
 C   -0.291038   -1.019711    0.133146
 C   -1.279797    1.066465    1.012671
 C    0.388690   -0.108663    2.364836
 H    0.538647    0.879309   -1.676582
 H    1.539163    2.054579   -1.400482
 H    0.038390    2.186118   -0.968168
 N   -0.024233    0.229907   19.117409
 H    1.404802    1.687129   19.040028
 H    1.857074    0.366021   18.335245
 C   10.716804   15.364165    1.012671
 C   12.385290   14.189037    2.364836
 C   13.108685   15.273947    0.283185
 N   13.523767    9.766759    1.954137
 H   12.345701    9.994664    0.415059
 H   13.880547    9.802074    0.160756
 H   13.091889    9.767045    3.837432
 C    4.718503    6.082385   -1.012671
 C    5.707263    8.168562   -0.133146
 C    6.386990    7.257513   -2.364837
 H   12.770381    1.722873   12.246506
 H   13.797290    2.447766   11.307401
 H   13.920855    2.592173   12.864098
 H   13.604145    5.388803   15.477970
 H   13.844076    5.288719   13.932171
 H   12.645617    6.133713   14.486189
 C   -2.188180    2.253318   12.330244
 H   -0.802573    1.978802   13.790487
 H   -1.973441    2.912441   14.239151
 C   -2.317743    5.541789   13.961234
 H   -0.701801    5.890652   12.798706
 H   -1.768299    4.987038   12.095740
 H   -2.342936    6.542627    7.036928
 H   -1.797091    5.996456    5.672772
 H   -1.397604    5.291579    7.013314
 H   -0.538648    8.028159   10.758834
 H   -1.539164    9.203429   10.482733
 H   -0.038389    9.334968   10.050418
 C   13.388206    5.257265    8.431779
 H   12.506455    6.396791    9.856058
 H   13.956844    7.713609    7.592761
 H   13.596947    8.352716    8.975079
 C   13.123081    9.572166    7.402760
 H   -1.095290   16.915895    5.244818
 N   -1.527167   16.915609    7.128113
 H    0.120446   17.181118    6.198453
 H   -0.349101   17.143515    8.667191
 H   -1.883946   16.950924    8.921494
 H   10.901310   16.915895    5.244818
 N   10.469433   16.915609    7.128113
 H   12.117046   17.181118    6.198453
 H   11.647499   17.143515    8.667191
 H   10.112654   16.950924    8.921494
 H    3.655364   14.903922   11.127573
 H    4.600696   16.154970   11.151186
 H    4.201210   15.450095   12.491726
 H    7.439092   16.988527    9.203952
 H    7.212356   16.420908   10.648029
 H    8.223670   15.717462    9.678045
 C    5.222120   -1.579896    8.018173
 H    4.593498   -1.687128    9.957779
 H    4.141226   -0.366021    9.252996
 C    7.124781   -2.423317   10.761739
 H    7.958544   -0.564759   10.571739
 H    7.598647   -1.203867    9.189421
 H    5.877854   -2.883417   15.280704
 H    7.093590   -2.618195   14.327066
 N    7.525467   -2.617908   16.210361
 H    6.347401   -2.845814   17.749441
 H    7.882246   -2.653224   18.003744
 H   -1.607545   12.537653   11.768779
 H   -0.649015   13.282563   12.760560
 H   -1.847476   12.437569   13.314578
 H   -0.773781    8.871723   15.000243
 H   -1.924254    9.741023   14.382651
 H   -1.800690    9.596616   15.939348
 H   12.799173    9.127652   13.456262
 H   13.970041   10.061292   13.007598
 C   14.184780    9.402167   14.916505
 H   13.764899   12.135888   15.151009
 H   12.698401   13.039502   14.448043
 C   14.314343   12.690639   13.285515
 H    9.771231   -1.419762    0.595796
 H   10.555808   -2.690827    0.121702
 H   10.782544   -2.123209    1.565780
 H   13.394204   -1.857271    2.068936
 H   13.793690   -1.152395    3.409477
 H   14.339536   -0.606222    2.045323
 H   12.535247    0.879309   -1.676582
 H   13.535764    2.054579   -1.400482
 H   12.034990    2.186118   -0.968168
 H   -0.509855   13.545641   -0.773808
 C   -1.391605   12.406114    0.650471
 H   -1.960244   14.862459    1.489489
 H   -1.600347   15.501566    0.107171
 C   -1.126481   16.721018    1.679490
 C    0.776180   15.877596   -1.064075
 H    1.404802   15.984829    0.875529
 H    1.857074   14.663721    0.170746
 H   -0.509855   -0.752059   -0.773808
 C   -1.391605   -1.891586    0.650471
 H    0.524251   -1.542722    0.094455
 H   -1.960244    0.564759    1.489489
 H   -1.600347    1.203866    0.107171
 C   -1.126481    2.423317    1.679490
 H   -0.361097   -0.533304    2.810048
 C    1.590749   -1.013849    2.483087
 C   -0.291038   -1.019711   18.297646
 C   -1.279797    1.066465   19.177170
 C    0.388690   -0.108663   20.529335
 H   10.036356   14.862459    1.489489
 H   10.396254   15.501566    0.107171
 C   10.870119   16.721018    1.679490
 C   13.587349   13.283851    2.483087
 H   12.574837   15.015445    2.835479
 C   12.772780   15.877596   -1.064075
 H   13.401402   15.984829    0.875529
 H   13.853675   14.663721    0.170746
 H    4.397954    5.944983   -0.107170
 C    4.871819    4.725533   -1.679489
 H    4.038056    6.584091   -1.489489
 C    4.606695    9.040436   -0.650471
 H    6.522551    8.691572   -0.094456
 H    5.637203    7.682154   -2.810048
 H    6.576536    6.431106   -2.835478
 C    7.589049    8.162700   -2.483087
 H   -2.760417    1.531284   12.600714
 H   -2.723228    2.981071   12.008550
 H   -1.602746    1.953066   11.630729
 H   -2.964360    4.839771   14.061139
 H   -2.760417    6.346749   13.679684
 H   -1.878668    5.694774   14.800434
 H   13.437391    4.458023    8.960546
 H   13.210656    5.025641    7.516470
 H   14.221970    5.729088    8.486455
 H   12.818367    9.452209    6.501075
 H   13.970041   10.024117    7.398400
 H   12.482463   10.097035    7.888841
 H    4.459136   -2.054580    7.681767
 H    5.959911   -2.186118    8.114082
 H    5.459653   -0.879309    7.405666
 H    7.971741   -2.875267   10.766099
 H    6.484162   -2.948186   10.275657
 H    6.820067   -2.303359   11.663424
 H   13.599346    9.101916   15.616020
 H   14.757018    8.680134   14.646035
 H   14.719829   10.129921   15.238199
 H   13.875268   12.843624   12.446315
 H   14.960960   11.988622   13.185610
 H   14.757018   13.495599   13.567065
 H   -2.225369   12.877938    0.595796
 H   -1.440792   11.606873    0.121702
 H   -1.214056   12.174491    1.565780
 H   -1.973441   17.172968    1.683849
 H   -0.485862   17.245886    1.193408
 H   -0.821767   16.601059    2.581176
 H    0.538647   15.177009   -1.676582
 H    1.539163   16.352280   -1.400482
 H    0.038390   16.483818   -0.968168
 H   -2.225369   -1.419762    0.595796
 H   -1.440792   -2.690827    0.121702
 H   -1.214056   -2.123209    1.565780
 H   -1.973441    2.875268    1.683849
 H   -0.485862    2.948186    1.193408
 H   -0.821767    2.303360    2.581176
 H    1.397604   -1.857271    2.068936
 H    1.797090   -1.152395    3.409477
 H    2.342936   -0.606222    2.045323
 H   -0.509855   -0.752059   17.390692
 C   -1.391605   -1.891586   18.814970
 H    0.524251   -1.542722   18.258955
 H   -1.960244    0.564759   19.653988
 H   -1.600347    1.203866   18.271669
 C   -1.126481    2.423317   19.843988
 H   -0.361097   -0.533304   20.974546
 C    1.590749   -1.013849   20.647587
 H    0.578236    0.717745   20.999977
 H   10.023159   17.172968    1.683849
 H   11.510738   17.245886    1.193408
 H   11.174833   16.601059    2.581176
 H   13.394204   12.440429    2.068936
 H   13.793690   13.145305    3.409477
 H   14.339536   13.691478    2.045323
 H   12.535247   15.177009   -1.676582
 H   13.535764   16.352280   -1.400482
 H   12.034990   16.483818   -0.968168
 H    5.176533    4.845490   -2.581175
 H    4.024859    4.273582   -1.683849
 H    5.512438    4.200664   -1.193407
 H    3.772931    8.568612   -0.595797
 H    4.557508    9.839677   -0.121702
 H    4.784244    9.272058   -1.565781
 H    7.795391    8.301245   -3.409476
 H    7.395904    9.006121   -2.068937
 H    8.341236    7.755073   -2.045322
 H   -2.225369   -1.419762   18.760294
 H   -1.440792   -2.690827   18.286201
 H   -1.214056   -2.123209   19.730280
 H   -1.973441    2.875268   19.848349
 H   -0.485862    2.948186   19.357906
 H   -0.821767    2.303360   20.745674
 H    1.397604   -1.857271   20.233437
 H    1.797090   -1.152395   21.573977
 H    2.342936   -0.606222   20.209822
 H   14.024026    9.422184    2.125246
 H   -2.027426   16.571035    6.957003
 H    9.969174   16.571035    6.957003
 H    8.025726   -2.273334   16.039253
