24
title
Fe       3.884953    -2.626815    -9.289428
O        2.343749    -4.312371    -7.486583
N        1.900715    -0.305727    -9.814727
C        2.635507    -1.174741    -9.624726
C        2.937821    -3.617360    -8.216251
C        3.529253    -3.682986   -10.645208
H        4.744029     0.485937    -7.804462
O        3.316074    -4.419318   -11.515469
Fe       6.251162    -3.227891    -8.710289
S        5.695240    -1.853453   -10.455025
S        4.964167    -1.840871    -7.443715
O        5.868590    -5.284758    -6.708779
N        6.391642     0.220429    -8.734121
H        6.891900    -0.124146    -8.563011
N        9.079360    -2.244781    -7.944147
C        5.988556    -0.066812   -10.037424
C        5.511092    -0.069815    -7.648247
C        8.025579    -2.607942    -8.234779
C        6.030545    -4.452060    -7.486583
C        6.645970    -4.434616    -9.904641
H        5.959765     0.220715    -6.850825
H        5.213576     0.448334   -10.273199
H        6.748421     0.255744   -10.527502
O        6.863948    -5.240864   -10.698066
