328
title
Fe 11.017077610000001 6.9195148920000005 1.3988299805
Fe 1.3866869940000002 6.318439584 1.977968734
S 0.8307645500000002 7.692877485000001 0.23323218
S 0.099691746 7.705459461000001 3.2445429900000002
O 9.475874408000001 5.233959039 3.20167477
O 10.448198838 5.127012243 17.33728867
O 1.00411542 4.261572462 3.97947866
O 1.9994733220000003 4.305466401 18.15469117
N 1.52716718 9.76675887 1.95413691
H 2.0274254000000003 9.422184300000001 2.1252465000000003
N 9.032839970000001 9.24060351 0.873530805
N 4.214885444 7.301549436000001 2.744111015
C 1.1240814200000002 9.479518077 0.650834035
C 0.6466167400000001 9.47651556 3.04001072
C 9.76763172 8.371589304 1.063531475
C 10.069946040000001 5.9289702360000005 2.472006805
C 10.661378420000002 5.863343793 0.04304986500000001
C 3.1611041 6.938387856 2.453479015
C 1.16606952 5.09427051 3.20167477
C 1.7814951 5.1117137040000005 0.78361653
N 6.492319988 10.372981350000002 4.18764383
C 5.70798228 10.17567309 5.48059294
H 6.33900344 10.12706091 6.2158919
H 5.156138680000001 10.95918705 5.6237292
C 4.8178345600000005 8.95321974 5.53835605
H 4.3907556 8.90889687 6.395720450000001
H 5.34928394 8.1639867 5.40393875
H 4.1508236 9.00898077 4.849921500000001
C 7.36711206 11.584425471000001 4.42523549
H 6.80087254 12.31889832 4.7082384
H 7.971740700000001 11.38525851 5.15690155
C 8.18647984 12.044382480000001 3.247994245
H 8.75871766 12.76641633 3.51846365
H 7.601045760000001 12.34463418 2.54847935
H 8.7215282 11.31662955 2.92630095
C 7.3059294 9.151528839000001 3.8526904500000003
H 6.7001011 8.4070476 3.7164567
H 7.76659884 9.310662240000001 3.0134905499999998
C 8.316043120000002 8.755911480000002 4.8789847
H 8.75871766 7.950950970000001 4.59743495
H 7.87696756 8.60292609 5.718184600000001
H 8.96265986 9.45792855 4.9788894500000005
C 5.58321764 10.57171938 3.0058614599999998
H 6.13146226 10.62605064 2.20698675
H 5.022976420000001 9.783916110000002 2.91903515
C 4.68827128 11.785594110000002 3.047821455
H 4.19761034 11.84993376 2.22515125
H 5.224519300000001 12.574827149999999 3.1642559
H 4.07404536 11.705526990000001 3.7818489
N 5.974066868 6.918942984000001 17.21159033
C 6.38698984 7.2575125200000015 15.799663745
H 6.576536120000001 6.43110546 15.32902155
H 5.63720234 7.68215421 15.354451850000002
C 7.589049160000001 8.162699907 15.68141285
H 7.7953906800000015 8.30124462 14.75502335
H 8.34123598 7.75507248 16.1191773
H 7.395903900000001 9.006121230000002 16.09556345
C 7.11038482 6.172603044000001 17.881315445000002
H 7.4031018600000005 5.4617214 17.2889711
H 7.855373680000001 6.78282888 17.993753700000003
C 6.77448002 5.568954150000001 19.228576410000002
H 7.53746378 5.09427051 19.56498295
H 6.03668912 4.96273167 19.132667849999997
H 6.536947340000001 6.26954145 19.84108335
C 5.707262484 8.168561964000002 18.031354215
H 5.488444500000001 7.90090902 18.9383077
H 6.52255142 8.69157183 18.0700446
C 4.6066944 9.04043571 17.514029255
H 4.557508340000001 9.839677140000001 18.04279785
H 3.7729307000000003 8.568611610000001 17.568704399999998
H 4.784244080000001 9.27205845 16.598720099999998
C 4.718502712 6.082384557 17.151829125000003
H 4.03805556 6.584090850000001 16.675011
H 4.39795356 5.94498366 18.05732945
C 4.8718192600000005 4.725532827 16.48501033
H 4.0248593 4.2735825300000005 16.48065085
H 5.5124377 4.20066426 16.97109235
H 5.176532900000001 4.84549053 15.58332455
H 11.876154136 10.032267159 2.88379602
H 1.0952895800000002 9.767044824 3.8374322700000003
H 0.34910106 9.994664208 0.41505882499999996
H 1.8839460640000003 9.802074189 0.16075582500000002
Fe 6.97782239 7.378185108000001 10.4810799805
Fe 4.611613006000001 7.979260416000001 11.060218734
S 5.16753545 6.6048225149999995 9.31548218
S 5.898608254000001 6.592240539 12.32679299
O 8.519025592 9.063740961 12.28392477
O 7.546701162000001 9.170687757000001 8.25503867
O 4.994184580000001 10.036127538 13.06172866
O 3.9988266780000004 9.992233599 9.072441170000001
N 4.471132820000001 4.5309411299999995 11.036386910000001
H 3.9708745999999997 4.8755157 11.2074965
N 8.96206003 5.05709649 9.955780805
N 1.7834145560000003 6.996150564 11.826361015000002
C 4.87421858 4.818181923 9.733084035000001
C 5.351683260000001 4.8211844400000015 12.12226072
C 8.22726828 5.926110695999999 10.145781475
C 7.92495396 8.368729764000001 11.554256805000001
C 7.33352158 8.434356206999999 9.125299865
C 2.8371959 7.359312144000001 11.535729015000001
C 4.832230480000001 9.20342949 12.28392477
C 4.2168049000000005 9.185986296 9.86586653
N 11.502580012000001 3.9247186499999995 13.26989383
C 0.29031772 4.122026910000001 14.56284294
H 11.65589656 4.17063909 15.298141900000001
H 0.8421613199999999 3.3385129500000006 14.7059792
C 1.1804654399999999 5.344480260000001 14.62060605
H 1.6075444 5.38880313 15.47797045
H 0.6490160599999998 6.133713300000001 14.48618875
H 1.8474764000000004 5.288719230000001 13.9321715
C 10.627787940000001 2.713274529 13.507485489999999
H 11.194027460000001 1.9788016799999997 13.7904884
H 10.023159300000001 2.91244149 14.23915155
C 9.80842016 2.2533175199999995 12.330244245000001
H 9.236182340000001 1.5312836699999997 12.60071365
H 10.39385424 1.9530658200000008 11.63072935
H 9.273371800000001 2.9810704500000003 12.00855095
C 10.688970600000001 5.146171161 12.93494045
H 11.2947989 5.8906524000000005 12.7987067
H 10.228301160000001 4.987037760000001 12.095740549999999
C 9.67885688 5.54178852 13.961234699999999
H 9.236182340000001 6.34674903 13.67968495
H 10.11793244 5.69477391 14.800434599999999
H 9.03224014 4.839771450000001 14.06113945
C 0.41508236000000026 3.725980620000001 12.08811146
H 11.86343774 3.6716493600000004 11.289236749999999
H 0.9753235799999999 4.51378389 12.001285150000001
C 1.3100287200000003 2.5121058899999995 12.130071455
H 1.8006896600000002 2.4477662400000004 11.307401250000002
H 0.7737807000000001 1.7228728500000008 12.2465059
H 1.92425464 2.59217301 12.864098899999998
N 0.02423313200000026 7.378757016 26.293840330000002
C 11.607910160000001 7.040187479999999 24.881913745
H 11.418363880000001 7.86659454 24.411271550000002
H 0.3610976600000002 6.6155457900000005 24.43670185
C 10.40585084 6.1350000929999995 24.76366285
H 10.19950932 5.9964553800000004 23.83727335
H 9.65366402 6.542627520000001 25.2014273
H 10.5989961 5.29157877 25.17781345
C 10.884515180000001 8.125096956 26.963565445
H 10.591798140000002 8.8359786 26.3712211
H 10.13952632 7.514871120000001 27.076003700000005
C 11.22041998 8.728745850000001 28.31082641
H 10.457436220000002 9.20342949 28.64723295
H 11.958210880000001 9.33496833 28.21491785
H 11.45795266 8.02815855 28.92333335
C 0.29103751600000005 6.129138036 27.113604215
H 0.5098554999999998 6.3967909800000005 28.0205577
H 11.472348580000002 5.606128170000001 27.1522946
C 1.3916056 5.257264290000001 26.596279255
H 1.44079166 4.45802286 27.12504785
H 2.2253693 5.729088389999999 26.6509544
H 1.2140559200000003 5.0256415500000005 25.6809701
C 1.2797972880000001 8.215315443 26.234079125
H 1.96024444 7.71360915 25.757261000000003
H 1.6003464400000003 8.35271634 27.13957945
C 1.1264807399999999 9.572167172999999 25.56726033
H 1.9734406999999998 10.024117470000002 25.562900850000002
H 0.4858622999999998 10.097035739999999 26.053342349999998
H 0.8217671000000001 9.452209470000001 24.66557455
H 6.118745864000001 4.265432841 11.96604602
H 4.90301042 4.530655176000001 12.919682270000001
H 5.64919894 4.303035792 9.497308825000001
H 4.1143539360000005 4.495625811 9.243005825000001
Fe 0.9795223900000001 14.068364892 7.683420019500001
Fe 10.609913006000001 13.467289584 7.104281266
S 11.165835450000001 14.841727485000003 8.84901782
S 11.896908254 14.854309461000003 5.83770701
O 2.5207255920000002 12.382809039000001 5.880575230000001
O 1.548401162 12.275862243 9.909461330000001
O 10.992484580000001 11.410422462 5.10277134
O 9.997126678 11.454316401000002 9.09205883
N 10.469432820000002 16.91560887 7.12811309
H 9.9691746 16.5710343 6.9570035
N 2.96376003 16.389453510000003 8.208719195
N 7.781714556000001 14.450399436000001 6.338138985
C 10.872518580000001 16.628368076999998 8.431415965
C 11.34998326 16.62536556 6.0422392799999995
C 2.22896828 15.520439304000002 8.018718525
C 1.92665396 13.077820235999999 6.610243195000001
C 1.33522158 13.012193793000002 9.039200135
C 8.8354959 14.087237856 6.628770985
C 10.830530480000002 12.24312051 5.880575230000001
C 10.215104900000002 12.260563704 8.29863347
N 5.504280012000001 17.521831350000003 4.89460617
C 6.28861772 17.32452309 3.6016570600000004
H 5.657596560000001 17.27591091 2.8663581
H 6.840461320000001 18.10803705 3.4585208000000005
C 7.178765440000001 16.102069739999997 3.54389395
H 7.6058444000000005 16.05774687 2.6865295499999995
H 6.6473160600000005 15.3128367 3.67831125
H 7.845776400000001 16.157830770000004 4.2323284999999995
C 4.629487940000001 18.733275471000002 4.65701451
H 5.1957274600000005 19.467748320000002 4.3740116
H 4.0248593 18.53410851 3.9253484500000004
C 3.8101201600000003 19.193232480000002 5.834255755
H 3.2378823400000005 19.91526633 5.56378635
H 4.39555424 19.49348418 6.53377065
H 3.2750718000000005 18.46547955 6.155949049999999
C 4.690670600000001 16.300378839000004 5.22955955
H 5.2964989000000005 15.555897600000002 5.3657933
H 4.2300011600000005 16.459512240000002 6.06875945
C 3.6805568799999997 15.904761480000001 4.2032653
H 3.2378823400000005 15.099800970000002 4.48481505
H 4.119632440000001 15.751776090000003 3.3640653999999994
H 3.0339401400000003 16.60677855 4.10336055
C 6.41338236 17.720569379999997 6.076388540000001
H 5.865137740000001 17.77490064 6.875263250000001
H 6.97362358 16.93276611 6.16321485
C 7.3083287200000004 18.93444411 6.034428545
H 7.798989660000001 18.998783760000002 6.8570987500000005
H 6.7720807 19.72367715 5.9179941
H 7.92255464 18.854376990000002 5.3004011
N 6.022533132 14.067792984 10.035159669999999
C 5.609610160000001 14.406362520000002 11.447086255
H 5.42006388 13.57995546 11.91772845
H 6.359397660000001 14.831004210000003 11.892298149999998
C 4.40755084 15.311549907000002 11.565337150000001
H 4.201209319999999 15.450094620000002 12.49172665
H 3.65536402 14.90392248 11.1275727
H 4.6006960999999995 16.15497123 11.15118655
C 4.886215180000001 13.321453044 9.365434555
H 4.59349814 12.610571400000001 9.957778900000001
H 4.1412263199999995 13.93167888 9.2529963
C 5.22211998 12.71780415 8.018173589999998
H 4.45913622 12.24312051 7.681767050000001
H 5.959910880000001 12.11158167 8.114082150000002
H 5.45965266 13.418391450000001 7.40566665
C 6.289337516 15.317411964000001 9.215395784999998
H 6.5081555 15.04975902 8.308442300000001
H 5.474048580000001 15.840421829999999 9.1767054
C 7.3899056000000005 16.18928571 9.732720745
H 7.43909166 16.988527140000002 9.203952150000001
H 8.223669300000001 15.71746161 9.6780456
H 7.21235592 16.42090845 10.648029900000001
C 7.2780972880000006 13.231234557000002 10.094920875
H 7.958544440000001 13.73294085 10.571738999999999
H 7.5986464400000004 13.09383366 9.189420550000001
C 7.12478074 11.874382827000002 10.76173967
H 7.971740700000001 11.42243253 10.76609915
H 6.4841623 11.349514260000001 10.27565765
H 6.8200671 11.99434053 11.66342545
H 0.12044586400000001 17.181117159 6.19845398
H 10.90131042 16.915894824 5.24481773
H 11.64749894 17.143514208000003 8.667191175000001
H 10.112653936 16.950924189000002 8.921494175
Fe 5.018777610000001 0.22933510799999998 16.7656700195
Fe 7.384986994 0.8304104160000003 16.186531266
S 6.829064550000001 13.753672515 17.931267820000002
S 6.097991746000001 13.741090539 14.919957010000001
O 3.4775744080000006 1.914890961 14.96282523
O 4.449898838 2.0218377569999997 0.8272113299999999
O 7.00241542 2.887277538 14.18502134
O 7.9977733220000005 2.843383599 0.009808830000000001
N 7.52546718 11.67979113 16.21036309
H 8.0257254 12.0243657 16.0392535
N 3.0345399700000004 12.20594649 17.290969195000002
N 10.213185444 14.145000564 15.420388984999999
C 7.122381420000001 11.967031923 17.513665965
C 6.644916740000001 11.970034440000001 15.12448928
C 3.7693317200000007 13.074960696 17.100968525
C 4.071646040000001 1.219879764 15.692493194999999
C 4.663078420000001 1.2855062069999998 18.121450135
C 9.159404100000001 0.21046214400000016 15.711020985
C 7.16436952 2.05457949 14.96282523
C 7.7797951 2.037136296 17.38088347
N 12.490619988 11.07356865 13.976856170000001
C 11.70628228 11.27087691 12.683907060000001
H 12.337303440000001 11.31948909 11.9486081
H 11.15443868 10.487362950000001 12.5407708
C 10.81613456 12.49333026 12.626143950000001
H 10.3890556 12.53765313 11.76877955
H 11.34758394 13.282563300000001 12.76056125
H 10.149123600000001 12.437569230000001 13.3145785
C 13.365412060000002 9.862124529 13.739264510000002
H 12.79917254 9.12765168 13.456261600000001
H 13.9700407 10.06129149 13.00759845
C 14.18477984 9.40216752 14.916505755
H 14.75701766 8.68013367 14.646036350000001
H 13.59934576 9.101915820000002 15.616020650000001
H 14.7198282 10.12992045 15.23819905
C 13.3042294 12.295021161000001 14.311809550000001
H 12.698401100000002 13.039502400000002 14.4480433
H 13.76489884 12.135887760000001 15.151009450000002
C 14.314343120000002 12.69063852 13.285515300000002
H 14.75701766 13.49559903 13.56706505
H 13.875267560000001 12.84362391 12.446315400000001
H 14.960959860000003 11.98862145 13.18561055
C 11.581517640000001 10.874830620000001 15.15863854
H 12.12976226 10.820499360000001 15.957513250000002
H 11.021276420000001 11.66263389 15.24546485
C 10.68657128 9.66095589 15.116678545000001
H 10.195910340000001 9.596616240000001 15.939348749999999
H 11.222819300000001 8.871722850000001 15.0002441
H 10.072345360000002 9.741023010000001 14.382651100000002
N 11.972366868 0.22990701599999977 0.9529096699999992
C 12.38528984 14.18903748 2.3648362550000006
H 12.57483612 0.7177445400000003 2.8354784500000005
H 11.63550234 13.76439579 2.810048149999999
C 13.587349160000002 13.283850093 2.4830871500000007
H 13.793690680000001 13.14530538 3.4094766499999998
H 14.33953598 13.691477520000001 2.0453227000000007
H 13.3942039 12.44042877 2.06893655
C 13.10868482 0.9762469560000001 0.2831845549999999
H 13.40140186 1.6871286 0.8755289000000004
H 13.853673680000002 0.3660211200000002 0.17074629999999935
C 12.77278002 1.57989585 -1.0640764100000013
H 13.53576378 2.05457949 -1.4004829499999991
H 12.034989120000002 2.1861183299999998 -0.9681678499999983
H 12.535247340000003 0.8793085500000001 -1.676583350000001
C 11.705562484000001 13.277988036 0.13314578499999905
H 11.4867445 13.545640980000002 -0.7738076999999995
H 12.52085142 12.754978170000001 0.09445539999999968
C 10.6049944 12.406114290000001 0.6504707450000001
H 10.55580834 11.60687286 0.12170215000000072
H 9.7712307 12.87793839 0.595795600000001
H 10.782544080000001 12.17449155 1.565779900000001
C 10.716802712000002 1.066465443 1.0126708749999993
H 10.03635556 0.5647591499999998 1.4894889999999994
H 10.396253560000002 1.20386634 0.1071705500000003
C 10.870119260000001 2.4233171729999996 1.6794896699999997
H 10.023159300000001 2.8752674700000003 1.6838491500000001
H 11.510737700000002 2.94818574 1.1934076499999997
H 11.1748329 2.3033594700000006 2.58117545
H 5.877854136000001 11.414282841 15.28070398
H 7.093589580000001 11.679505176000001 14.32706773
H 6.347401060000001 11.451885792 17.749441175
H 7.882246064000001 11.644475811000001 18.003744175
