 xtb: 6.5.1 (conda-forge)
          12302217273D

  3  2  0     0  0            999 V2000
   -1.3776    0.0000   -1.7402 O   0  0  0  0  0  0  0  0  0  0  0  0
   -1.3776    0.7593   -1.1442 H   0  0  0  0  0  0  0  0  0  0  0  0
   -1.3776   -0.7593   -1.1442 H   0  0  0  0  0  0  0  0  0  0  0  0
  1  2  1  0  0  0  0
  1  3  1  0  0  0  0
M  END
