9
title
O       -2.733149    -1.765657    -4.927803
H       -2.620858    -2.545800    -5.473027
H       -1.847882    -1.517082    -4.631908
C       -0.463381     0.135250    -6.063459
H       -0.263448    -0.637773    -6.808469
H       -1.515558     0.438226    -6.143440
H        0.178909     1.002079    -6.268155
O       -0.185008    -0.423780    -4.793245
H       -0.323720     0.243570    -4.109745
