5
Coordinates from ORCA-job ORCA-opt
  H   0.65765392294250     -0.30920849327232      0.93237014247691
  Cl  -0.42716665616574     -0.11382552153019      0.18362438092441
  O   1.97535464118230     -0.75346896512691      2.00045394849134
  H   1.56122855816224     -0.74164239178763      2.88571565175127
  H   2.09704453387869     -1.70607362828294      1.81892087635605
